OGA_A_401
prProtoss 07192420153D 1   1.00000     0.00000     0
Protoss beta proteinsplus
 13 12  0  0  0  0            999 V2000
  -23.0740  -22.1440  -23.8770 O   0  0  0  0  0  0  0  0  0  0  0  0
  -24.5360  -21.5670  -25.4360 O   0  5  0  0  0  0  0  0  0  0  0  0
  -29.2100  -21.0160  -24.9820 O   0  0  0  0  0  0  0  0  0  0  0  0
  -30.3190  -21.3530  -23.0880 O   0  5  0  0  0  0  0  0  0  0  0  0
  -27.8440  -21.9950  -21.9790 O   0  0  0  0  0  0  0  0  0  0  0  0
  -26.7320  -21.6450  -23.8970 N   0  0  0  0  0  0  0  0  0  0  0  0
  -25.4410  -21.9730  -23.2790 C   0  0  0  0  0  0  0  0  0  0  0  0
  -24.3190  -21.8780  -24.2800 C   0  0  0  0  0  0  0  0  0  0  0  0
  -29.1800  -21.3280  -23.8090 C   0  0  0  0  0  0  0  0  0  0  0  0
  -27.8740  -21.6810  -23.1630 C   0  0  0  0  0  0  0  0  0  0  0  0
  -26.7705  -21.3936  -24.8641 H   0  0  0  0  0  0  0  0  0  0  0  0
  -25.4790  -22.9051  -22.9189 H   0  0  0  0  0  0  0  0  0  0  0  0
  -25.2656  -21.3334  -22.5305 H   0  0  0  0  0  0  0  0  0  0  0  0
  1  8  2  0  0  0  0
  2  8  1  0  0  0  0
  3  9  2  0  0  0  0
  4  9  1  0  0  0  0
  5 10  2  0  0  0  0
  6  7  1  0  0  0  0
  6 10  1  0  0  0  0
  7  8  1  0  0  0  0
  9 10  1  0  0  0  0
  7 13  1  0  0  0  0
  7 12  1  0  0  0  0
  6 11  1  0  0  0  0
M  CHG  2   2  -1   4  -1
M  END
$$$$
OXY_A_501
prProtoss 07192420153D 1   1.00000     0.00000     0
Protoss beta proteinsplus
  2  1  0  0  0  0            999 V2000
  -29.5080  -18.0130  -18.8770 O   0  0  0  0  0  0  0  0  0  0  0  0
  -29.3700  -17.9690  -17.8680 O   0  0  0  0  0  0  0  0  0  0  0  0
  1  2  2  0  0  0  0
M  END
$$$$
OXY_A_502
prProtoss 07192420153D 1   1.00000     0.00000     0
Protoss beta proteinsplus
  2  1  0  0  0  0            999 V2000
  -28.5730  -19.5860  -20.3790 O   0  0  0  0  0  0  0  0  0  0  0  0
  -29.1830  -19.3420  -21.1540 O   0  0  0  0  0  0  0  0  0  0  0  0
  1  2  2  0  0  0  0
M  END
$$$$
OGA_B_402
prProtoss 07192420153D 1   1.00000     0.00000     0
Protoss beta proteinsplus
 13 12  0  0  0  0            999 V2000
    4.9650  -20.3210   -1.5360 O   0  0  0  0  0  0  0  0  0  0  0  0
    6.3980  -19.5150   -0.0500 O   0  5  0  0  0  0  0  0  0  0  0  0
   11.0560  -18.9880   -0.4700 O   0  0  0  0  0  0  0  0  0  0  0  0
   12.2070  -19.5950   -2.2780 O   0  5  0  0  0  0  0  0  0  0  0  0
    9.7620  -20.3940   -3.3310 O   0  0  0  0  0  0  0  0  0  0  0  0
    8.6120  -19.7880   -1.5120 N   0  0  0  0  0  0  0  0  0  0  0  0
    7.3410  -20.2140   -2.1050 C   0  0  0  0  0  0  0  0  0  0  0  0
    6.2020  -19.9890   -1.1530 C   0  0  0  0  0  0  0  0  0  0  0  0
   11.0540  -19.4680   -1.5900 C   0  0  0  0  0  0  0  0  0  0  0  0
    9.7660  -19.9170   -2.2070 C   0  0  0  0  0  0  0  0  0  0  0  0
    8.6264  -19.4005   -0.5902 H   0  0  0  0  0  0  0  0  0  0  0  0
    7.3939  -21.1875   -2.3277 H   0  0  0  0  0  0  0  0  0  0  0  0
    7.1776  -19.6893   -2.9405 H   0  0  0  0  0  0  0  0  0  0  0  0
  1  8  2  0  0  0  0
  2  8  1  0  0  0  0
  3  9  2  0  0  0  0
  4  9  1  0  0  0  0
  5 10  2  0  0  0  0
  6  7  1  0  0  0  0
  6 10  1  0  0  0  0
  7  8  1  0  0  0  0
  9 10  1  0  0  0  0
  7 13  1  0  0  0  0
  7 12  1  0  0  0  0
  6 11  1  0  0  0  0
M  CHG  2   2  -1   4  -1
M  END
$$$$
OXY_B_503
prProtoss 07192420153D 1   1.00000     0.00000     0
Protoss beta proteinsplus
  2  1  0  0  0  0            999 V2000
   10.3310  -18.0630   -4.8030 O   0  0  0  0  0  0  0  0  0  0  0  0
   11.1540  -17.6870   -4.3260 O   0  0  0  0  0  0  0  0  0  0  0  0
  1  2  2  0  0  0  0
M  END
$$$$
