OGA_A_5001
prProtoss 02052416283D 1   1.00000     0.00000     0
Protoss beta proteinsplus
 13 12  0  0  0  0            999 V2000
  -24.2880  -21.5340  -25.4420 O   0  0  0  0  0  0  0  0  0  0  0  0
  -23.1040  -22.4480  -23.7800 O   0  5  0  0  0  0  0  0  0  0  0  0
  -29.2310  -20.5640  -25.1530 O   0  0  0  0  0  0  0  0  0  0  0  0
  -30.4040  -21.1340  -23.3350 O   0  5  0  0  0  0  0  0  0  0  0  0
  -27.9740  -22.1250  -22.3340 O   0  0  0  0  0  0  0  0  0  0  0  0
  -26.6980  -21.5180  -24.2590 N   0  0  0  0  0  0  0  0  0  0  0  0
  -25.5160  -22.0930  -23.4830 C   0  0  0  0  0  0  0  0  0  0  0  0
  -24.2580  -22.0040  -24.3070 C   0  0  0  0  0  0  0  0  0  0  0  0
  -29.2430  -21.0700  -24.0420 C   0  0  0  0  0  0  0  0  0  0  0  0
  -27.9750  -21.6140  -23.4530 C   0  0  0  0  0  0  0  0  0  0  0  0
  -26.6366  -21.1293  -25.1783 H   0  0  0  0  0  0  0  0  0  0  0  0
  -25.6998  -23.0512  -23.2637 H   0  0  0  0  0  0  0  0  0  0  0  0
  -25.3935  -21.5749  -22.6365 H   0  0  0  0  0  0  0  0  0  0  0  0
  1  8  2  0  0  0  0
  2  8  1  0  0  0  0
  3  9  2  0  0  0  0
  4  9  1  0  0  0  0
  5 10  2  0  0  0  0
  6  7  1  0  0  0  0
  6 10  1  0  0  0  0
  7  8  1  0  0  0  0
  9 10  1  0  0  0  0
  7 13  1  0  0  0  0
  7 12  1  0  0  0  0
  6 11  1  0  0  0  0
M  CHG  2   2  -1   4  -1
M  END
$$$$
OGA_B_6001
prProtoss 02052416283D 1   1.00000     0.00000     0
Protoss beta proteinsplus
 13 12  0  0  0  0            999 V2000
    6.3280  -19.2190    0.1320 O   0  0  0  0  0  0  0  0  0  0  0  0
    5.0170  -20.2190   -1.3530 O   0  5  0  0  0  0  0  0  0  0  0  0
   11.4090  -18.9040   -0.5590 O   0  0  0  0  0  0  0  0  0  0  0  0
   12.3460  -19.7820   -2.3890 O   0  5  0  0  0  0  0  0  0  0  0  0
    9.7540  -20.5610   -3.0870 O   0  0  0  0  0  0  0  0  0  0  0  0
    8.7190  -19.6370   -1.1540 N   0  0  0  0  0  0  0  0  0  0  0  0
    7.4230  -20.1620   -1.7780 C   0  0  0  0  0  0  0  0  0  0  0  0
    6.2210  -19.8320   -0.9250 C   0  0  0  0  0  0  0  0  0  0  0  0
   11.2690  -19.5150   -1.6130 C   0  0  0  0  0  0  0  0  0  0  0  0
    9.9030  -19.9570   -2.0380 C   0  0  0  0  0  0  0  0  0  0  0  0
    8.7746  -19.1499   -0.2824 H   0  0  0  0  0  0  0  0  0  0  0  0
    7.4889  -21.1551   -1.8754 H   0  0  0  0  0  0  0  0  0  0  0  0
    7.3052  -19.7457   -2.6796 H   0  0  0  0  0  0  0  0  0  0  0  0
  1  8  2  0  0  0  0
  2  8  1  0  0  0  0
  3  9  2  0  0  0  0
  4  9  1  0  0  0  0
  5 10  2  0  0  0  0
  6  7  1  0  0  0  0
  6 10  1  0  0  0  0
  7  8  1  0  0  0  0
  9 10  1  0  0  0  0
  7 13  1  0  0  0  0
  7 12  1  0  0  0  0
  6 11  1  0  0  0  0
M  CHG  2   2  -1   4  -1
M  END
$$$$
