AKG_A_1351
prProtoss 06022403213D 1   1.00000     0.00000     0
Protoss beta proteinsplus
 14 13  0  0  0  0            999 V2000
   16.5390   25.4580   29.1840 O   0  0  0  0  0  0  0  0  0  0  0  0
   17.5050   24.3730   27.6420 O   0  5  0  0  0  0  0  0  0  0  0  0
   22.3120   23.7270   27.4320 O   0  0  0  0  0  0  0  0  0  0  0  0
   23.5080   25.4720   27.6850 O   0  5  0  0  0  0  0  0  0  0  0  0
   21.3880   26.7610   28.8640 O   0  0  0  0  0  0  0  0  0  0  0  0
   18.9330   25.5740   29.1680 C   0  0  0  0  0  0  0  0  0  0  0  0
   19.9880   25.0060   28.4620 C   0  0  0  0  0  0  0  0  0  0  0  0
   17.5790   25.1040   28.6300 C   0  0  0  0  0  0  0  0  0  0  0  0
   22.4280   24.8950   27.8000 C   0  0  0  0  0  0  0  0  0  0  0  0
   21.2320   25.6270   28.4140 C   0  0  0  0  0  0  0  0  0  0  0  0
   20.6152   27.2482   29.2708 H   0  0  0  0  0  0  0  0  0  0  0  0
   18.9868   26.5693   29.0873 H   0  0  0  0  0  0  0  0  0  0  0  0
   19.0084   25.3130   30.1304 H   0  0  0  0  0  0  0  0  0  0  0  0
   19.8505   24.1394   27.9823 H   0  0  0  0  0  0  0  0  0  0  0  0
  1  8  2  0  0  0  0
  2  8  1  0  0  0  0
  3  9  2  0  0  0  0
  4  9  1  0  0  0  0
  5 10  1  0  0  0  0
  6  7  1  0  0  0  0
  6  8  1  0  0  0  0
  7 10  2  0  0  0  0
  9 10  1  0  0  0  0
  7 14  1  0  0  0  0
  6 13  1  0  0  0  0
  5 11  1  0  0  0  0
  6 12  1  0  0  0  0
M  CHG  2   2  -1   4  -1
M  END
$$$$
SO4_A_1352
prProtoss 06022403213D 1   1.00000     0.00000     0
Protoss beta proteinsplus
  5  4  0  0  0  0            999 V2000
    0.7090   25.5110   43.9600 S   0  0  0  0  0  0  0  0  0  0  0  0
    1.9070   25.8400   44.7570 O   0  0  0  0  0  0  0  0  0  0  0  0
    1.0950   24.6510   42.8270 O   0  0  0  0  0  0  0  0  0  0  0  0
   -0.2560   24.7900   44.8120 O   0  5  0  0  0  0  0  0  0  0  0  0
    0.0930   26.7530   43.4500 O   0  5  0  0  0  0  0  0  0  0  0  0
  1  2  2  0  0  0  0
  1  3  2  0  0  0  0
  1  4  1  0  0  0  0
  1  5  1  0  0  0  0
M  CHG  2   4  -1   5  -1
M  END
$$$$
SO4_A_1353
prProtoss 06022403213D 1   1.00000     0.00000     0
Protoss beta proteinsplus
  5  4  0  0  0  0            999 V2000
    2.1850   28.1990   29.9630 S   0  0  0  0  0  0  0  0  0  0  0  0
    3.2350   28.9350   30.6920 O   0  0  0  0  0  0  0  0  0  0  0  0
    2.8110   27.1540   29.1320 O   0  0  0  0  0  0  0  0  0  0  0  0
    1.2610   27.5760   30.9310 O   0  5  0  0  0  0  0  0  0  0  0  0
    1.4370   29.1320   29.0990 O   0  5  0  0  0  0  0  0  0  0  0  0
  1  2  2  0  0  0  0
  1  3  2  0  0  0  0
  1  4  1  0  0  0  0
  1  5  1  0  0  0  0
M  CHG  2   4  -1   5  -1
M  END
$$$$
GOL_A_2000
prProtoss 06022403213D 1   1.00000     0.00000     0
Protoss beta proteinsplus
 14 13  0  0  0  0            999 V2000
   14.9370   37.7100   35.3570 O   0  0  0  0  0  0  0  0  0  0  0  0
   19.3380   38.8080   36.9910 O   0  0  0  0  0  0  0  0  0  0  0  0
   16.5650   39.2190   37.1330 O   0  0  0  0  0  0  0  0  0  0  0  0
   16.1620   37.1850   35.8670 C   0  0  0  0  0  0  0  0  0  0  0  0
   18.4350   37.7500   36.7080 C   0  0  0  0  0  0  0  0  0  0  0  0
   17.1350   38.3280   36.1680 C   0  0  0  0  0  0  0  0  0  0  0  0
   14.7784   38.6194   35.7414 H   0  0  0  0  0  0  0  0  0  0  0  0
   19.8900   39.0011   36.1798 H   0  0  0  0  0  0  0  0  0  0  0  0
   17.2080   39.9611   37.3222 H   0  0  0  0  0  0  0  0  0  0  0  0
   16.5687   36.5737   35.1881 H   0  0  0  0  0  0  0  0  0  0  0  0
   15.9795   36.6751   36.7077 H   0  0  0  0  0  0  0  0  0  0  0  0
   18.2495   37.2363   37.5457 H   0  0  0  0  0  0  0  0  0  0  0  0
   18.8383   37.1404   36.0255 H   0  0  0  0  0  0  0  0  0  0  0  0
   17.3231   38.8316   35.3248 H   0  0  0  0  0  0  0  0  0  0  0  0
  1  4  1  0  0  0  0
  2  5  1  0  0  0  0
  3  6  1  0  0  0  0
  4  6  1  0  0  0  0
  5  6  1  0  0  0  0
  1  7  1  0  0  0  0
  2  8  1  0  0  0  0
  3  9  1  0  0  0  0
  4 10  1  0  0  0  0
  4 11  1  0  0  0  0
  5 12  1  0  0  0  0
  5 13  1  0  0  0  0
  6 14  1  0  0  0  0
M  END
$$$$
GOL_A_2001
prProtoss 06022403213D 1   1.00000     0.00000     0
Protoss beta proteinsplus
 14 13  0  0  0  0            999 V2000
   35.9770   44.7410   26.0010 O   0  0  0  0  0  0  0  0  0  0  0  0
   31.9670   43.1570   23.8370 O   0  0  0  0  0  0  0  0  0  0  0  0
   34.5860   44.1060   23.5880 O   0  0  0  0  0  0  0  0  0  0  0  0
   35.0040   43.6910   25.9510 C   0  0  0  0  0  0  0  0  0  0  0  0
   32.9340   42.8680   24.8370 C   0  0  0  0  0  0  0  0  0  0  0  0
   33.9570   43.9900   24.8730 C   0  0  0  0  0  0  0  0  0  0  0  0
   36.3312   44.8232   26.9326 H   0  0  0  0  0  0  0  0  0  0  0  0
   32.3923   43.6914   23.1066 H   0  0  0  0  0  0  0  0  0  0  0  0
   34.6136   43.2084   23.1482 H   0  0  0  0  0  0  0  0  0  0  0  0
   34.5513   43.6176   26.8397 H   0  0  0  0  0  0  0  0  0  0  0  0
   35.4607   42.8275   25.7373 H   0  0  0  0  0  0  0  0  0  0  0  0
   33.3906   42.0045   24.6226 H   0  0  0  0  0  0  0  0  0  0  0  0
   32.4844   42.7952   25.7273 H   0  0  0  0  0  0  0  0  0  0  0  0
   33.4952   44.8495   25.0921 H   0  0  0  0  0  0  0  0  0  0  0  0
  1  4  1  0  0  0  0
  2  5  1  0  0  0  0
  3  6  1  0  0  0  0
  4  6  1  0  0  0  0
  5  6  1  0  0  0  0
  1  7  1  0  0  0  0
  2  8  1  0  0  0  0
  3  9  1  0  0  0  0
  4 10  1  0  0  0  0
  4 11  1  0  0  0  0
  5 12  1  0  0  0  0
  5 13  1  0  0  0  0
  6 14  1  0  0  0  0
M  END
$$$$
GOL_A_2002
prProtoss 06022403213D 1   1.00000     0.00000     0
Protoss beta proteinsplus
 14 13  0  0  0  0            999 V2000
   19.3670   33.2790    6.9200 O   0  0  0  0  0  0  0  0  0  0  0  0
   16.1230   29.7070    7.7060 O   0  0  0  0  0  0  0  0  0  0  0  0
   18.7400   30.4830    6.8660 O   0  0  0  0  0  0  0  0  0  0  0  0
   18.4510   32.7000    7.8600 C   0  0  0  0  0  0  0  0  0  0  0  0
   16.7770   30.8560    8.2620 C   0  0  0  0  0  0  0  0  0  0  0  0
   17.7580   31.4670    7.2450 C   0  0  0  0  0  0  0  0  0  0  0  0
   18.8693   33.5604    6.0996 H   0  0  0  0  0  0  0  0  0  0  0  0
   16.0427   29.8161    6.7152 H   0  0  0  0  0  0  0  0  0  0  0  0
   18.6776   30.3112    5.8828 H   0  0  0  0  0  0  0  0  0  0  0  0
   17.7588   33.3784    8.1063 H   0  0  0  0  0  0  0  0  0  0  0  0
   18.9518   32.4219    8.6797 H   0  0  0  0  0  0  0  0  0  0  0  0
   17.2810   30.5827    9.0813 H   0  0  0  0  0  0  0  0  0  0  0  0
   16.0891   31.5394    8.5063 H   0  0  0  0  0  0  0  0  0  0  0  0
   17.2499   31.7505    6.4317 H   0  0  0  0  0  0  0  0  0  0  0  0
  1  4  1  0  0  0  0
  2  5  1  0  0  0  0
  3  6  1  0  0  0  0
  4  6  1  0  0  0  0
  5  6  1  0  0  0  0
  1  7  1  0  0  0  0
  2  8  1  0  0  0  0
  3  9  1  0  0  0  0
  4 10  1  0  0  0  0
  4 11  1  0  0  0  0
  5 12  1  0  0  0  0
  5 13  1  0  0  0  0
  6 14  1  0  0  0  0
M  END
$$$$
