AKG_A_302
prProtoss 07242420203D 1   1.00000     0.00000     0
Protoss beta proteinsplus
 14 13  0  0  0  0            999 V2000
   20.3240   -1.4740  -21.5070 O   0  0  0  0  0  0  0  0  0  0  0  0
   21.6090   -0.4770  -20.0410 O   0  5  0  0  0  0  0  0  0  0  0  0
   20.1040   -1.0340  -15.0980 O   0  0  0  0  0  0  0  0  0  0  0  0
   19.2060   -2.9460  -14.5780 O   0  5  0  0  0  0  0  0  0  0  0  0
   19.1950   -3.6600  -17.1390 O   0  0  0  0  0  0  0  0  0  0  0  0
   19.7310   -1.7240  -19.2090 C   0  0  0  0  0  0  0  0  0  0  0  0
   20.4740   -1.7760  -17.8730 C   0  0  0  0  0  0  0  0  0  0  0  0
   20.6160   -1.1880  -20.3240 C   0  0  0  0  0  0  0  0  0  0  0  0
   19.6890   -2.1660  -15.4290 C   0  0  0  0  0  0  0  0  0  0  0  0
   19.7440   -2.6060  -16.8290 C   0  0  0  0  0  0  0  0  0  0  0  0
   18.9335   -1.1283  -19.1134 H   0  0  0  0  0  0  0  0  0  0  0  0
   19.4306   -2.6471  -19.4490 H   0  0  0  0  0  0  0  0  0  0  0  0
   20.5757   -0.8434  -17.5267 H   0  0  0  0  0  0  0  0  0  0  0  0
   21.3780   -2.1756  -18.0248 H   0  0  0  0  0  0  0  0  0  0  0  0
  1  8  2  0  0  0  0
  2  8  1  0  0  0  0
  3  9  2  0  0  0  0
  4  9  1  0  0  0  0
  5 10  2  0  0  0  0
  6  7  1  0  0  0  0
  6  8  1  0  0  0  0
  7 10  1  0  0  0  0
  9 10  1  0  0  0  0
  7 14  1  0  0  0  0
  7 13  1  0  0  0  0
  6 11  1  0  0  0  0
  6 12  1  0  0  0  0
M  CHG  2   2  -1   4  -1
M  END
$$$$
AKG_B_302
prProtoss 07242420203D 1   1.00000     0.00000     0
Protoss beta proteinsplus
 14 13  0  0  0  0            999 V2000
  -25.3440  -23.7440  -15.0970 O   0  0  0  0  0  0  0  0  0  0  0  0
  -27.0470  -23.2630  -13.8120 O   0  5  0  0  0  0  0  0  0  0  0  0
  -25.7540  -17.0160  -12.7940 O   0  0  0  0  0  0  0  0  0  0  0  0
  -26.6540  -18.6070  -11.6050 O   0  5  0  0  0  0  0  0  0  0  0  0
  -24.7180  -18.9110  -14.4250 O   0  0  0  0  0  0  0  0  0  0  0  0
  -25.2450  -21.6850  -13.9240 C   0  0  0  0  0  0  0  0  0  0  0  0
  -26.2670  -20.5720  -13.7030 C   0  0  0  0  0  0  0  0  0  0  0  0
  -25.9290  -22.9810  -14.3030 C   0  0  0  0  0  0  0  0  0  0  0  0
  -26.0300  -18.2270  -12.6230 C   0  0  0  0  0  0  0  0  0  0  0  0
  -25.6070  -19.2070  -13.6330 C   0  0  0  0  0  0  0  0  0  0  0  0
  -24.7251  -21.8238  -13.0811 H   0  0  0  0  0  0  0  0  0  0  0  0
  -24.6226  -21.4164  -14.6592 H   0  0  0  0  0  0  0  0  0  0  0  0
  -26.7505  -20.7422  -12.8444 H   0  0  0  0  0  0  0  0  0  0  0  0
  -26.9203  -20.5773  -14.4601 H   0  0  0  0  0  0  0  0  0  0  0  0
  1  8  2  0  0  0  0
  2  8  1  0  0  0  0
  3  9  2  0  0  0  0
  4  9  1  0  0  0  0
  5 10  2  0  0  0  0
  6  7  1  0  0  0  0
  6  8  1  0  0  0  0
  7 10  1  0  0  0  0
  9 10  1  0  0  0  0
  7 14  1  0  0  0  0
  7 13  1  0  0  0  0
  6 11  1  0  0  0  0
  6 12  1  0  0  0  0
M  CHG  2   2  -1   4  -1
M  END
$$$$
GOL_B_303
prProtoss 07242420203D 1   1.00000     0.00000     0
Protoss beta proteinsplus
 14 13  0  0  0  0            999 V2000
    1.3870  -22.8590  -13.6700 O   0  0  0  0  0  0  0  0  0  0  0  0
    0.0400  -23.6520   -9.2340 O   0  0  0  0  0  0  0  0  0  0  0  0
    2.2780  -22.8410  -10.5480 O   0  0  0  0  0  0  0  0  0  0  0  0
    1.5810  -23.7940  -12.6320 C   0  0  0  0  0  0  0  0  0  0  0  0
    0.2130  -24.1040  -10.5590 C   0  0  0  0  0  0  0  0  0  0  0  0
    1.1420  -23.1620  -11.3190 C   0  0  0  0  0  0  0  0  0  0  0  0
    2.0643  -23.0140  -14.3892 H   0  0  0  0  0  0  0  0  0  0  0  0
    0.8633  -23.1686   -8.9365 H   0  0  0  0  0  0  0  0  0  0  0  0
    3.0141  -23.4855  -10.7547 H   0  0  0  0  0  0  0  0  0  0  0  0
    2.5482  -24.0426  -12.5792 H   0  0  0  0  0  0  0  0  0  0  0  0
    1.0356  -24.6130  -12.8103 H   0  0  0  0  0  0  0  0  0  0  0  0
   -0.6755  -24.1326  -11.0171 H   0  0  0  0  0  0  0  0  0  0  0  0
    0.6110  -25.0213  -10.5459 H   0  0  0  0  0  0  0  0  0  0  0  0
    0.6449  -22.3182  -11.5215 H   0  0  0  0  0  0  0  0  0  0  0  0
  1  4  1  0  0  0  0
  2  5  1  0  0  0  0
  3  6  1  0  0  0  0
  4  6  1  0  0  0  0
  5  6  1  0  0  0  0
  1  7  1  0  0  0  0
  2  8  1  0  0  0  0
  3  9  1  0  0  0  0
  4 10  1  0  0  0  0
  4 11  1  0  0  0  0
  5 12  1  0  0  0  0
  5 13  1  0  0  0  0
  6 14  1  0  0  0  0
M  END
$$$$
2TQ_B_304
prProtoss 07242420203D 1   1.00000     0.00000     0
Protoss beta proteinsplus
 19 20  0  0  0  0            999 V2000
  -26.7310  -13.4860   -9.0740 O   0  0  0  0  0  0  0  0  0  0  0  0
  -25.0030  -12.8170  -10.3050 O   0  5  0  0  0  0  0  0  0  0  0  0
  -25.9440  -10.1500  -13.3600 O   0  0  0  0  0  0  0  0  0  0  0  0
  -26.4720  -12.2340  -12.4250 N   0  0  0  0  0  0  0  0  0  0  0  0
  -27.6700  -13.8920  -13.3110 C   0  0  0  0  0  0  0  0  0  0  0  0
  -27.8220  -14.0430  -11.7810 C   0  0  0  0  0  0  0  0  0  0  0  0
  -25.8400  -12.3660  -14.3260 C   0  0  0  0  0  0  0  0  0  0  0  0
  -26.2200  -13.0630  -10.1380 C   0  0  0  0  0  0  0  0  0  0  0  0
  -26.0600  -11.3700  -13.3620 C   0  0  0  0  0  0  0  0  0  0  0  0
  -26.2450  -13.3960  -13.2940 C   0  0  1  0  0  0  0  0  0  0  0  0
  -27.1060  -12.7830  -11.2020 C   0  0  1  0  0  0  0  0  0  0  0  0
  -26.1815   -9.6265  -12.5418 H   0  0  0  0  0  0  0  0  0  0  0  0
  -28.3053  -13.2226  -13.6961 H   0  0  0  0  0  0  0  0  0  0  0  0
  -27.7685  -14.7617  -13.7947 H   0  0  0  0  0  0  0  0  0  0  0  0
  -27.3799  -14.8810  -11.4612 H   0  0  0  0  0  0  0  0  0  0  0  0
  -28.7871  -14.0546  -11.5194 H   0  0  0  0  0  0  0  0  0  0  0  0
  -25.5439  -12.3862  -15.2810 H   0  0  0  0  0  0  0  0  0  0  0  0
  -25.5430  -14.0468  -13.0048 H   0  0  0  0  0  0  0  0  0  0  0  0
  -27.7995  -12.1376  -10.8818 H   0  0  0  0  0  0  0  0  0  0  0  0
  1  8  2  0  0  0  0
  2  8  1  0  0  0  0
  3  9  1  0  0  0  0
  4  9  1  0  0  0  0
  4 10  1  0  0  0  0
  4 11  1  0  0  0  0
  5  6  1  0  0  0  0
  5 10  1  0  0  0  0
  6 11  1  0  0  0  0
  7  9  2  0  0  0  0
  7 10  1  0  0  0  0
  8 11  1  0  0  0  0
 11 19  1  0  0  0  0
  3 12  1  0  0  0  0
  5 13  1  0  0  0  0
  5 14  1  0  0  0  0
  6 15  1  0  0  0  0
  6 16  1  0  0  0  0
  7 17  1  0  0  0  0
 10 18  1  0  0  0  0
M  CHG  1   2  -1
M  END
$$$$
AKG_C_302
prProtoss 07242420203D 1   1.00000     0.00000     0
Protoss beta proteinsplus
 14 13  0  0  0  0            999 V2000
   20.2030  -44.8820  -20.8260 O   0  0  0  0  0  0  0  0  0  0  0  0
   21.5870  -46.4850  -20.2330 O   0  5  0  0  0  0  0  0  0  0  0  0
   20.8880  -50.2280  -25.4460 O   0  0  0  0  0  0  0  0  0  0  0  0
   20.8080  -50.6470  -23.3120 O   0  5  0  0  0  0  0  0  0  0  0  0
   20.1340  -47.6790  -24.8530 O   0  0  0  0  0  0  0  0  0  0  0  0
   20.1310  -46.8950  -22.0890 C   0  0  0  0  0  0  0  0  0  0  0  0
   21.2100  -47.7640  -22.7350 C   0  0  0  0  0  0  0  0  0  0  0  0
   20.6850  -46.0300  -20.9720 C   0  0  0  0  0  0  0  0  0  0  0  0
   20.8040  -49.8320  -24.2620 C   0  0  0  0  0  0  0  0  0  0  0  0
   20.6770  -48.3880  -24.0110 C   0  0  0  0  0  0  0  0  0  0  0  0
   19.4203  -47.4899  -21.7135 H   0  0  0  0  0  0  0  0  0  0  0  0
   19.7335  -46.3017  -22.7889 H   0  0  0  0  0  0  0  0  0  0  0  0
   21.4774  -48.4877  -22.0988 H   0  0  0  0  0  0  0  0  0  0  0  0
   22.0061  -47.1984  -22.9502 H   0  0  0  0  0  0  0  0  0  0  0  0
  1  8  2  0  0  0  0
  2  8  1  0  0  0  0
  3  9  2  0  0  0  0
  4  9  1  0  0  0  0
  5 10  2  0  0  0  0
  6  7  1  0  0  0  0
  6  8  1  0  0  0  0
  7 10  1  0  0  0  0
  9 10  1  0  0  0  0
  7 14  1  0  0  0  0
  7 13  1  0  0  0  0
  6 11  1  0  0  0  0
  6 12  1  0  0  0  0
M  CHG  2   2  -1   4  -1
M  END
$$$$
2TQ_C_303
prProtoss 07242420203D 1   1.00000     0.00000     0
Protoss beta proteinsplus
 19 20  0  0  0  0            999 V2000
   21.5070  -55.3100  -26.5240 O   0  0  0  0  0  0  0  0  0  0  0  0
   20.1100  -54.3040  -27.9370 O   0  5  0  0  0  0  0  0  0  0  0  0
   21.8750  -53.4410  -31.6260 O   0  0  0  0  0  0  0  0  0  0  0  0
   22.0100  -53.1310  -29.2990 N   0  0  0  0  0  0  0  0  0  0  0  0
   23.1520  -51.5910  -28.1560 C   0  0  0  0  0  0  0  0  0  0  0  0
   23.0210  -52.8020  -27.2060 C   0  0  0  0  0  0  0  0  0  0  0  0
   21.7000  -51.4220  -30.3020 C   0  0  0  0  0  0  0  0  0  0  0  0
   21.2510  -54.5280  -27.4680 C   0  0  0  0  0  0  0  0  0  0  0  0
   21.8610  -52.7870  -30.5870 C   0  0  0  0  0  0  0  0  0  0  0  0
   21.8080  -51.7500  -28.8270 C   0  0  1  0  0  0  0  0  0  0  0  0
   22.3500  -53.9050  -28.0830 C   0  0  1  0  0  0  0  0  0  0  0  0
   22.0200  -54.4299  -31.5925 H   0  0  0  0  0  0  0  0  0  0  0  0
   23.9144  -51.6858  -28.7961 H   0  0  0  0  0  0  0  0  0  0  0  0
   23.2355  -50.7243  -27.6641 H   0  0  0  0  0  0  0  0  0  0  0  0
   22.4462  -52.5755  -26.4197 H   0  0  0  0  0  0  0  0  0  0  0  0
   23.9201  -53.1011  -26.8864 H   0  0  0  0  0  0  0  0  0  0  0  0
   21.5698  -50.5900  -30.8413 H   0  0  0  0  0  0  0  0  0  0  0  0
   20.9989  -51.5780  -28.2651 H   0  0  0  0  0  0  0  0  0  0  0  0
   23.0318  -54.5985  -28.3158 H   0  0  0  0  0  0  0  0  0  0  0  0
  1  8  2  0  0  0  0
  2  8  1  0  0  0  0
  3  9  1  0  0  0  0
  4  9  1  0  0  0  0
  4 10  1  0  0  0  0
  4 11  1  0  0  0  0
  5  6  1  0  0  0  0
  5 10  1  0  0  0  0
  6 11  1  0  0  0  0
  7  9  2  0  0  0  0
  7 10  1  0  0  0  0
  8 11  1  0  0  0  0
 11 19  1  0  0  0  0
  3 12  1  0  0  0  0
  5 13  1  0  0  0  0
  5 14  1  0  0  0  0
  6 15  1  0  0  0  0
  6 16  1  0  0  0  0
  7 17  1  0  0  0  0
 10 18  1  0  0  0  0
M  CHG  1   2  -1
M  END
$$$$
