OGA_A_301
prProtoss 07192420183D 1   1.00000     0.00000     0
Protoss beta proteinsplus
 13 12  0  0  0  0            999 V2000
   -9.6800    8.8470  -16.6290 O   0  0  0  0  0  0  0  0  0  0  0  0
   -7.6310    8.6150  -17.4510 O   0  5  0  0  0  0  0  0  0  0  0  0
   -7.8690    9.1530  -23.4540 O   0  0  0  0  0  0  0  0  0  0  0  0
   -6.6320    8.1810  -21.9100 O   0  5  0  0  0  0  0  0  0  0  0  0
   -9.7620    9.5210  -21.6500 O   0  0  0  0  0  0  0  0  0  0  0  0
   -8.4010    8.8330  -20.0030 N   0  0  0  0  0  0  0  0  0  0  0  0
   -9.4050    9.0060  -18.9770 C   0  0  0  0  0  0  0  0  0  0  0  0
   -8.8580    8.8060  -17.5660 C   0  0  0  0  0  0  0  0  0  0  0  0
   -7.6320    8.7710  -22.3090 C   0  0  0  0  0  0  0  0  0  0  0  0
   -8.6830    9.0620  -21.2820 C   0  0  0  0  0  0  0  0  0  0  0  0
   -7.4809    8.5367  -19.7468 H   0  0  0  0  0  0  0  0  0  0  0  0
  -10.1365    8.3421  -19.1321 H   0  0  0  0  0  0  0  0  0  0  0  0
   -9.7753    9.9323  -19.0467 H   0  0  0  0  0  0  0  0  0  0  0  0
  1  8  2  0  0  0  0
  2  8  1  0  0  0  0
  3  9  2  0  0  0  0
  4  9  1  0  0  0  0
  5 10  2  0  0  0  0
  6  7  1  0  0  0  0
  6 10  1  0  0  0  0
  7  8  1  0  0  0  0
  9 10  1  0  0  0  0
  7 13  1  0  0  0  0
  7 12  1  0  0  0  0
  6 11  1  0  0  0  0
M  CHG  2   2  -1   4  -1
M  END
$$$$
OGA_B_301
prProtoss 07192420183D 1   1.00000     0.00000     0
Protoss beta proteinsplus
 13 12  0  0  0  0            999 V2000
    3.5420   -6.3710   19.2510 O   0  0  0  0  0  0  0  0  0  0  0  0
    4.7040   -7.7720   17.9830 O   0  5  0  0  0  0  0  0  0  0  0  0
    3.8700   -6.2600   12.1900 O   0  0  0  0  0  0  0  0  0  0  0  0
    4.6620   -7.9070   13.4200 O   0  5  0  0  0  0  0  0  0  0  0  0
    3.0370   -5.0610   14.3880 O   0  0  0  0  0  0  0  0  0  0  0  0
    3.9280   -6.6650   15.6760 N   0  0  0  0  0  0  0  0  0  0  0  0
    3.4640   -6.0580   16.9040 C   0  0  0  0  0  0  0  0  0  0  0  0
    3.9420   -6.7990   18.1510 C   0  0  0  0  0  0  0  0  0  0  0  0
    4.1010   -6.8280   13.2560 C   0  0  0  0  0  0  0  0  0  0  0  0
    3.6470   -6.1210   14.4960 C   0  0  0  0  0  0  0  0  0  0  0  0
    4.4679   -7.5058   15.7151 H   0  0  0  0  0  0  0  0  0  0  0  0
    2.4640   -6.0531   16.8995 H   0  0  0  0  0  0  0  0  0  0  0  0
    3.8018   -5.1176   16.9426 H   0  0  0  0  0  0  0  0  0  0  0  0
  1  8  2  0  0  0  0
  2  8  1  0  0  0  0
  3  9  2  0  0  0  0
  4  9  1  0  0  0  0
  5 10  2  0  0  0  0
  6  7  1  0  0  0  0
  6 10  1  0  0  0  0
  7  8  1  0  0  0  0
  9 10  1  0  0  0  0
  7 13  1  0  0  0  0
  7 12  1  0  0  0  0
  6 11  1  0  0  0  0
M  CHG  2   2  -1   4  -1
M  END
$$$$
H3X_A_302
prProtoss 07202403343D 1   1.00000     0.00000     0
Protoss beta proteinsplus
 70 73  0  0  0  0            999 V2000
  -10.6040   14.5620  -31.7090 O   0  0  0  0  0  0  0  0  0  0  0  0
  -14.3100   14.3540  -21.6040 O   0  0  0  0  0  0  0  0  0  0  0  0
  -11.3120   13.4280  -21.2720 O   0  0  0  0  0  0  0  0  0  0  0  0
  -14.0370   12.1290  -21.1880 O   0  0  0  0  0  0  0  0  0  0  0  0
   -9.1120   15.5410  -30.5020 O   0  0  0  0  0  0  0  0  0  0  0  0
  -10.3530   15.3710  -25.4700 O   0  0  0  0  0  0  0  0  0  0  0  0
  -15.0570   12.4070  -20.2200 C   0  0  0  0  0  0  0  0  0  0  0  0
  -12.6570   17.6930  -25.5500 C   0  0  0  0  0  0  0  0  0  0  0  0
   -9.5850   14.8260  -22.7310 C   0  0  0  0  0  0  0  0  0  0  0  0
  -14.6190   13.5340  -24.6260 C   0  0  0  0  0  0  0  0  0  0  0  0
   -7.3480   16.0760  -28.9250 C   0  0  0  0  0  0  0  0  0  0  0  0
   -8.4630   17.8810  -30.1470 C   0  0  0  0  0  0  0  0  0  0  0  0
  -12.0080   12.7140  -25.6000 C   0  0  0  0  0  0  0  0  0  0  0  0
   -9.9370   14.1550  -27.8940 C   0  0  0  0  0  0  0  0  0  0  0  0
  -11.5170   16.1120  -30.3540 C   0  0  0  0  0  0  0  0  0  0  0  0
  -10.2800   18.0650  -26.3540 C   0  0  0  0  0  0  0  0  0  0  0  0
   -9.1370   17.4670  -27.1890 C   0  0  0  0  0  0  0  0  0  0  0  0
  -11.8500   15.4910  -28.9730 C   0  0  0  0  0  0  0  0  0  0  0  0
  -12.5800   15.0290  -26.2670 C   0  0  0  0  0  0  0  0  0  0  0  0
  -10.4220   15.4410  -30.8710 C   0  0  0  0  0  0  0  0  0  0  0  0
  -13.7830   13.2740  -21.8740 C   0  0  0  0  0  0  0  0  0  0  0  0
  -11.6340   13.6420  -22.4400 C   0  0  0  0  0  0  0  0  0  0  0  0
  -11.0770   14.6590  -24.5490 C   0  0  0  0  0  0  0  0  0  0  0  0
  -11.5950   17.2770  -26.5660 C   0  0  1  0  0  0  0  0  0  0  0  0
  -10.7810   14.3740  -23.2710 C   0  0  0  0  0  0  0  0  0  0  0  0
  -13.3300   14.0930  -24.0310 C   0  0  1  0  0  0  0  0  0  0  0  0
   -9.7590   16.7400  -28.3820 C   0  0  1  0  0  0  0  0  0  0  0  0
  -12.8560   13.1810  -22.9100 C   0  0  2  0  0  0  0  0  0  0  0  0
   -8.6960   16.5170  -29.5080 C   0  0  0  0  0  0  0  0  0  0  0  0
  -11.2760   15.7800  -26.5570 C   0  0  1  0  0  0  0  0  0  0  0  0
  -12.2480   14.1400  -25.0830 C   0  0  2  0  0  0  0  0  0  0  0  0
  -10.6660   15.5060  -27.9580 C   0  0  2  0  0  0  0  0  0  0  0  0
  -15.2604   11.5761  -19.7021 H   0  0  0  0  0  0  0  0  0  0  0  0
  -14.7381   13.1196  -19.5951 H   0  0  0  0  0  0  0  0  0  0  0  0
  -15.8840   12.7193  -20.6875 H   0  0  0  0  0  0  0  0  0  0  0  0
  -13.4940   17.1696  -25.7095 H   0  0  0  0  0  0  0  0  0  0  0  0
  -12.3223   17.5126  -24.6251 H   0  0  0  0  0  0  0  0  0  0  0  0
  -12.8500   18.6691  -25.6502 H   0  0  0  0  0  0  0  0  0  0  0  0
   -9.0747   15.3309  -23.4271 H   0  0  0  0  0  0  0  0  0  0  0  0
   -9.7758   15.4278  -21.9555 H   0  0  0  0  0  0  0  0  0  0  0  0
   -9.0428   14.0449  -22.4213 H   0  0  0  0  0  0  0  0  0  0  0  0
  -14.9326   14.1322  -25.3635 H   0  0  0  0  0  0  0  0  0  0  0  0
  -14.4486   12.6181  -24.9894 H   0  0  0  0  0  0  0  0  0  0  0  0
  -15.3206   13.4854  -23.9151 H   0  0  0  0  0  0  0  0  0  0  0  0
   -7.0488   16.7389  -28.2387 H   0  0  0  0  0  0  0  0  0  0  0  0
   -7.4473   15.1768  -28.4989 H   0  0  0  0  0  0  0  0  0  0  0  0
   -6.6689   16.0247  -29.6572 H   0  0  0  0  0  0  0  0  0  0  0  0
   -8.1784   18.5338  -29.4449 H   0  0  0  0  0  0  0  0  0  0  0  0
   -7.7478   17.8058  -30.8418 H   0  0  0  0  0  0  0  0  0  0  0  0
   -9.3100   18.1984  -30.5735 H   0  0  0  0  0  0  0  0  0  0  0  0
  -11.7875   12.1135  -24.8314 H   0  0  0  0  0  0  0  0  0  0  0  0
  -12.8333   12.3817  -26.0566 H   0  0  0  0  0  0  0  0  0  0  0  0
  -11.2469   12.7183  -26.2487 H   0  0  0  0  0  0  0  0  0  0  0  0
   -9.1886   14.2111  -27.2332 H   0  0  0  0  0  0  0  0  0  0  0  0
  -10.5792   13.4428  -27.6106 H   0  0  0  0  0  0  0  0  0  0  0  0
   -9.5688   13.9319  -28.7966 H   0  0  0  0  0  0  0  0  0  0  0  0
  -11.3009   17.0824  -30.2467 H   0  0  0  0  0  0  0  0  0  0  0  0
  -12.2988   16.0107  -30.9692 H   0  0  0  0  0  0  0  0  0  0  0  0
  -10.4214   19.0164  -26.6277 H   0  0  0  0  0  0  0  0  0  0  0  0
  -10.0306   18.0301  -25.3862 H   0  0  0  0  0  0  0  0  0  0  0  0
   -8.6118   16.8220  -26.6339 H   0  0  0  0  0  0  0  0  0  0  0  0
   -8.5342   18.1966  -27.5120 H   0  0  0  0  0  0  0  0  0  0  0  0
  -12.1275   14.5410  -29.1159 H   0  0  0  0  0  0  0  0  0  0  0  0
  -12.6103   16.0040  -28.5744 H   0  0  0  0  0  0  0  0  0  0  0  0
  -12.8549   14.4795  -27.0560 H   0  0  0  0  0  0  0  0  0  0  0  0
  -13.3127   15.6687  -26.0347 H   0  0  0  0  0  0  0  0  0  0  0  0
  -11.9412   17.5065  -27.4757 H   0  0  0  0  0  0  0  0  0  0  0  0
  -13.4936   15.0122  -23.6728 H   0  0  0  0  0  0  0  0  0  0  0  0
  -10.4010   17.4007  -28.7710 H   0  0  0  0  0  0  0  0  0  0  0  0
  -12.7781   12.2372  -23.2311 H   0  0  0  0  0  0  0  0  0  0  0  0
  1 20  2  0  0  0  0
  2 21  2  0  0  0  0
  3 22  2  0  0  0  0
  4  7  1  0  0  0  0
  4 21  1  0  0  0  0
  5 20  1  0  0  0  0
  5 29  1  0  0  0  0
  6 23  1  0  0  0  0
  6 30  1  0  0  0  0
  8 24  1  0  0  0  0
  9 25  1  0  0  0  0
 10 26  1  0  0  0  0
 11 29  1  0  0  0  0
 12 29  1  0  0  0  0
 13 31  1  0  0  0  0
 14 32  1  0  0  0  0
 15 18  1  0  0  0  0
 15 20  1  0  0  0  0
 16 17  1  0  0  0  0
 16 24  1  0  0  0  0
 17 27  1  0  0  0  0
 18 32  1  0  0  0  0
 19 30  1  0  0  0  0
 19 31  1  0  0  0  0
 21 28  1  0  0  0  0
 22 25  1  0  0  0  0
 22 28  1  0  0  0  0
 23 25  2  0  0  0  0
 23 31  1  0  0  0  0
 24 30  1  0  0  0  0
 26 28  1  0  0  0  0
 26 31  1  0  0  0  0
 27 29  1  0  0  0  0
 27 32  1  0  0  0  0
 30 32  1  0  0  0  0
  7 33  1  0  0  0  0
  7 34  1  0  0  0  0
  7 35  1  0  0  0  0
  8 36  1  0  0  0  0
  8 37  1  0  0  0  0
  8 38  1  0  0  0  0
  9 39  1  0  0  0  0
  9 40  1  0  0  0  0
  9 41  1  0  0  0  0
 10 42  1  0  0  0  0
 10 43  1  0  0  0  0
 10 44  1  0  0  0  0
 11 45  1  0  0  0  0
 11 46  1  0  0  0  0
 11 47  1  0  0  0  0
 12 48  1  0  0  0  0
 12 49  1  0  0  0  0
 12 50  1  0  0  0  0
 13 51  1  0  0  0  0
 13 52  1  0  0  0  0
 13 53  1  0  0  0  0
 14 54  1  0  0  0  0
 14 55  1  0  0  0  0
 14 56  1  0  0  0  0
 15 57  1  0  0  0  0
 15 58  1  0  0  0  0
 16 59  1  0  0  0  0
 16 60  1  0  0  0  0
 17 61  1  0  0  0  0
 17 62  1  0  0  0  0
 18 63  1  0  0  0  0
 18 64  1  0  0  0  0
 19 65  1  0  0  0  0
 19 66  1  0  0  0  0
 24 67  1  0  0  0  0
 26 68  1  0  0  0  0
 27 69  1  0  0  0  0
 28 70  1  0  0  0  0
M  END
$$$$
